<routes>

<vType id="type2" color="yellow" vClass="passenger" length = "5" lcKeepRight="-1" sigma="0.5" tau="1.3" mingap="2.0" accel="3.0" decel="4.5" speedFactor="1.0" speedDev="0.04" lcAssertive="3.5" lcStrategic="0.5" lcSpeedGain="1.0" lcImpatience="0.5"  lcCooperative="1.0" lcLookaheadLeft="5.0"/>
<route id="0" edges="VM M0 M1 M2 M3 M4"/> 
<route id="1" edges="VR R0 R1 R2 M3 M4"/> 
<vehicle id="0" depart="1.46" type="type2" route="0" departLane="random" departPos="base" departSpeed="max"/>

<vehicle id="1" depart="3.69" type="type2" route="0" departLane="random" departPos="base" departSpeed="max"/>

<vehicle id="2" depart="4.21" type="type2" route="0" departLane="random" departPos="base" departSpeed="max"/>

<vehicle id="3" depart="6.94" type="type2" route="0" departLane="random" departPos="base" departSpeed="max"/>

<vehicle id="4" depart="8.1" type="type2" route="0" departLane="random" departPos="base" departSpeed="max"/>

<vehicle id="5" depart="8.33" type="type2" route="1" departLane="random" departPos="base" departSpeed="max"/>

<vehicle id="6" depart="12.2" type="type2" route="1" departLane="random" departPos="base" departSpeed="max"/>

<vehicle id="7" depart="14.19" type="type2" route="0" departLane="random" departPos="base" departSpeed="max"/>

<vehicle id="8" depart="15.84" type="type2" route="1" departLane="random" departPos="base" departSpeed="max"/>

<vehicle id="9" depart="16.31" type="type2" route="0" departLane="random" departPos="base" departSpeed="max"/>

<vehicle id="10" depart="18.06" type="type2" route="0" departLane="random" departPos="base" departSpeed="max"/>

<vehicle id="11" depart="18.82" type="type2" route="0" departLane="random" departPos="base" departSpeed="max"/>

<vehicle id="12" depart="21.98" type="type2" route="1" departLane="random" departPos="base" departSpeed="max"/>

<vehicle id="13" depart="24.01" type="type2" route="0" departLane="random" departPos="base" departSpeed="max"/>

<vehicle id="14" depart="25.53" type="type2" route="0" departLane="random" departPos="base" departSpeed="max"/>

<vehicle id="15" depart="25.71" type="type2" route="0" departLane="random" departPos="base" departSpeed="max"/>

<vehicle id="16" depart="27.97" type="type2" route="0" departLane="random" departPos="base" departSpeed="max"/>

<vehicle id="17" depart="28.96" type="type2" route="0" departLane="random" departPos="base" departSpeed="max"/>

<vehicle id="18" depart="30.1" type="type2" route="0" departLane="random" departPos="base" departSpeed="max"/>

<vehicle id="19" depart="32.6" type="type2" route="0" departLane="random" departPos="base" departSpeed="max"/>

<vehicle id="20" depart="35.63" type="type2" route="0" departLane="random" departPos="base" departSpeed="max"/>

<vehicle id="21" depart="36.38" type="type2" route="0" departLane="random" departPos="base" departSpeed="max"/>

<vehicle id="22" depart="37.92" type="type2" route="1" departLane="random" departPos="base" departSpeed="max"/>

<vehicle id="23" depart="42.97" type="type2" route="0" departLane="random" departPos="base" departSpeed="max"/>

<vehicle id="24" depart="45.96" type="type2" route="1" departLane="random" departPos="base" departSpeed="max"/>

<vehicle id="25" depart="47.21" type="type2" route="0" departLane="random" departPos="base" departSpeed="max"/>

<vehicle id="26" depart="47.65" type="type2" route="0" departLane="random" departPos="base" departSpeed="max"/>

<vehicle id="27" depart="47.67" type="type2" route="0" departLane="random" departPos="base" departSpeed="max"/>

<vehicle id="28" depart="48.39" type="type2" route="0" departLane="random" departPos="base" departSpeed="max"/>

<vehicle id="29" depart="49.69" type="type2" route="0" departLane="random" departPos="base" departSpeed="max"/>

<vehicle id="30" depart="50.45" type="type2" route="0" departLane="random" departPos="base" departSpeed="max"/>

<vehicle id="31" depart="52.96" type="type2" route="0" departLane="random" departPos="base" departSpeed="max"/>

<vehicle id="32" depart="52.98" type="type2" route="0" departLane="random" departPos="base" departSpeed="max"/>

<vehicle id="33" depart="53.68" type="type2" route="1" departLane="random" departPos="base" departSpeed="max"/>

<vehicle id="34" depart="57.32" type="type2" route="0" departLane="random" departPos="base" departSpeed="max"/>

<vehicle id="35" depart="58.13" type="type2" route="1" departLane="random" departPos="base" departSpeed="max"/>

<vehicle id="36" depart="58.34" type="type2" route="0" departLane="random" departPos="base" departSpeed="max"/>

<vehicle id="37" depart="58.43" type="type2" route="0" departLane="random" departPos="base" departSpeed="max"/>

<vehicle id="38" depart="58.83" type="type2" route="0" departLane="random" departPos="base" departSpeed="max"/>

<vehicle id="39" depart="59.15" type="type2" route="0" departLane="random" departPos="base" departSpeed="max"/>

<vehicle id="40" depart="59.17" type="type2" route="0" departLane="random" departPos="base" departSpeed="max"/>

<vehicle id="41" depart="62.77" type="type2" route="0" departLane="random" departPos="base" departSpeed="max"/>

<vehicle id="42" depart="63.72" type="type2" route="0" departLane="random" departPos="base" departSpeed="max"/>

<vehicle id="43" depart="63.86" type="type2" route="0" departLane="random" departPos="base" departSpeed="max"/>

<vehicle id="44" depart="64.12" type="type2" route="0" departLane="random" departPos="base" departSpeed="max"/>

<vehicle id="45" depart="64.66" type="type2" route="1" departLane="random" departPos="base" departSpeed="max"/>

<vehicle id="46" depart="65.1" type="type2" route="0" departLane="random" departPos="base" departSpeed="max"/>

<vehicle id="47" depart="66.26" type="type2" route="0" departLane="random" departPos="base" departSpeed="max"/>

<vehicle id="48" depart="66.69" type="type2" route="0" departLane="random" departPos="base" departSpeed="max"/>

<vehicle id="49" depart="68.84" type="type2" route="0" departLane="random" departPos="base" departSpeed="max"/>

<vehicle id="50" depart="69.22" type="type2" route="0" departLane="random" departPos="base" departSpeed="max"/>

<vehicle id="51" depart="69.82" type="type2" route="0" departLane="random" departPos="base" departSpeed="max"/>

<vehicle id="52" depart="70.38" type="type2" route="0" departLane="random" departPos="base" departSpeed="max"/>

<vehicle id="53" depart="72.38" type="type2" route="0" departLane="random" departPos="base" departSpeed="max"/>

<vehicle id="54" depart="73.08" type="type2" route="0" departLane="random" departPos="base" departSpeed="max"/>

<vehicle id="55" depart="73.86" type="type2" route="1" departLane="random" departPos="base" departSpeed="max"/>

<vehicle id="56" depart="74.18" type="type2" route="0" departLane="random" departPos="base" departSpeed="max"/>

<vehicle id="57" depart="78.05" type="type2" route="0" departLane="random" departPos="base" departSpeed="max"/>

<vehicle id="58" depart="78.06" type="type2" route="1" departLane="random" departPos="base" departSpeed="max"/>

<vehicle id="59" depart="78.97" type="type2" route="0" departLane="random" departPos="base" departSpeed="max"/>

<vehicle id="60" depart="79.59" type="type2" route="0" departLane="random" departPos="base" departSpeed="max"/>

<vehicle id="61" depart="81.81" type="type2" route="0" departLane="random" departPos="base" departSpeed="max"/>

<vehicle id="62" depart="81.98" type="type2" route="0" departLane="random" departPos="base" departSpeed="max"/>

<vehicle id="63" depart="83.25" type="type2" route="0" departLane="random" departPos="base" departSpeed="max"/>

<vehicle id="64" depart="87.12" type="type2" route="0" departLane="random" departPos="base" departSpeed="max"/>

<vehicle id="65" depart="90.5" type="type2" route="0" departLane="random" departPos="base" departSpeed="max"/>

<vehicle id="66" depart="93.27" type="type2" route="0" departLane="random" departPos="base" departSpeed="max"/>

<vehicle id="67" depart="94.51" type="type2" route="0" departLane="random" departPos="base" departSpeed="max"/>

<vehicle id="68" depart="94.7" type="type2" route="0" departLane="random" departPos="base" departSpeed="max"/>

<vehicle id="69" depart="96.48" type="type2" route="0" departLane="random" departPos="base" departSpeed="max"/>

<vehicle id="70" depart="96.63" type="type2" route="0" departLane="random" departPos="base" departSpeed="max"/>

<vehicle id="71" depart="97.1" type="type2" route="0" departLane="random" departPos="base" departSpeed="max"/>

<vehicle id="72" depart="98.22" type="type2" route="0" departLane="random" departPos="base" departSpeed="max"/>

<vehicle id="73" depart="98.36" type="type2" route="0" departLane="random" departPos="base" departSpeed="max"/>

<vehicle id="74" depart="98.37" type="type2" route="0" departLane="random" departPos="base" departSpeed="max"/>

<vehicle id="75" depart="102.36" type="type2" route="1" departLane="random" departPos="base" departSpeed="max"/>

<vehicle id="76" depart="102.41" type="type2" route="0" departLane="random" departPos="base" departSpeed="max"/>

<vehicle id="77" depart="104.35" type="type2" route="0" departLane="random" departPos="base" departSpeed="max"/>

<vehicle id="78" depart="105.54" type="type2" route="1" departLane="random" departPos="base" departSpeed="max"/>

<vehicle id="79" depart="108.93" type="type2" route="0" departLane="random" departPos="base" departSpeed="max"/>

<vehicle id="80" depart="111.54" type="type2" route="0" departLane="random" departPos="base" departSpeed="max"/>

<vehicle id="81" depart="114.4" type="type2" route="0" departLane="random" departPos="base" departSpeed="max"/>

<vehicle id="82" depart="114.5" type="type2" route="0" departLane="random" departPos="base" departSpeed="max"/>

<vehicle id="83" depart="115.38" type="type2" route="0" departLane="random" departPos="base" departSpeed="max"/>

<vehicle id="84" depart="116.1" type="type2" route="0" departLane="random" departPos="base" departSpeed="max"/>

<vehicle id="85" depart="116.34" type="type2" route="0" departLane="random" departPos="base" departSpeed="max"/>

<vehicle id="86" depart="117.86" type="type2" route="0" departLane="random" departPos="base" departSpeed="max"/>

<vehicle id="87" depart="118.64" type="type2" route="0" departLane="random" departPos="base" departSpeed="max"/>

<vehicle id="88" depart="120.18" type="type2" route="0" departLane="random" departPos="base" departSpeed="max"/>

<vehicle id="89" depart="124.4" type="type2" route="0" departLane="random" departPos="base" departSpeed="max"/>

<vehicle id="90" depart="125.98" type="type2" route="0" departLane="random" departPos="base" departSpeed="max"/>

<vehicle id="91" depart="126.45" type="type2" route="0" departLane="random" departPos="base" departSpeed="max"/>

<vehicle id="92" depart="129.89" type="type2" route="0" departLane="random" departPos="base" departSpeed="max"/>

<vehicle id="93" depart="130.2" type="type2" route="0" departLane="random" departPos="base" departSpeed="max"/>

<vehicle id="94" depart="130.49" type="type2" route="0" departLane="random" departPos="base" departSpeed="max"/>

<vehicle id="95" depart="131.36" type="type2" route="0" departLane="random" departPos="base" departSpeed="max"/>

<vehicle id="96" depart="135.34" type="type2" route="0" departLane="random" departPos="base" departSpeed="max"/>

<vehicle id="97" depart="135.58" type="type2" route="0" departLane="random" departPos="base" departSpeed="max"/>

<vehicle id="98" depart="135.69" type="type2" route="0" departLane="random" departPos="base" departSpeed="max"/>

<vehicle id="99" depart="135.98" type="type2" route="0" departLane="random" departPos="base" departSpeed="max"/>

<vehicle id="100" depart="141.18" type="type2" route="0" departLane="random" departPos="base" departSpeed="max"/>

<vehicle id="101" depart="145.11" type="type2" route="0" departLane="random" departPos="base" departSpeed="max"/>

<vehicle id="102" depart="149.43" type="type2" route="0" departLane="random" departPos="base" departSpeed="max"/>

<vehicle id="103" depart="151.13" type="type2" route="0" departLane="random" departPos="base" departSpeed="max"/>

<vehicle id="104" depart="152.71" type="type2" route="0" departLane="random" departPos="base" departSpeed="max"/>

<vehicle id="105" depart="159.32" type="type2" route="0" departLane="random" departPos="base" departSpeed="max"/>

<vehicle id="106" depart="161.4" type="type2" route="0" departLane="random" departPos="base" departSpeed="max"/>

<vehicle id="107" depart="162.32" type="type2" route="0" departLane="random" departPos="base" departSpeed="max"/>

<vehicle id="108" depart="164.89" type="type2" route="0" departLane="random" departPos="base" departSpeed="max"/>

<vehicle id="109" depart="166.66" type="type2" route="1" departLane="random" departPos="base" departSpeed="max"/>

<vehicle id="110" depart="168.64" type="type2" route="0" departLane="random" departPos="base" departSpeed="max"/>

<vehicle id="111" depart="173.59" type="type2" route="0" departLane="random" departPos="base" departSpeed="max"/>

<vehicle id="112" depart="177.17" type="type2" route="0" departLane="random" departPos="base" departSpeed="max"/>

<vehicle id="113" depart="178.4" type="type2" route="0" departLane="random" departPos="base" departSpeed="max"/>

<vehicle id="114" depart="179.05" type="type2" route="0" departLane="random" departPos="base" departSpeed="max"/>

<vehicle id="115" depart="179.76" type="type2" route="0" departLane="random" departPos="base" departSpeed="max"/>

<vehicle id="116" depart="180.1" type="type2" route="1" departLane="random" departPos="base" departSpeed="max"/>

<vehicle id="117" depart="180.31" type="type2" route="0" departLane="random" departPos="base" departSpeed="max"/>

<vehicle id="118" depart="182.76" type="type2" route="1" departLane="random" departPos="base" departSpeed="max"/>

<vehicle id="119" depart="182.94" type="type2" route="1" departLane="random" departPos="base" departSpeed="max"/>

<vehicle id="120" depart="185.8" type="type2" route="0" departLane="random" departPos="base" departSpeed="max"/>

<vehicle id="121" depart="197.58" type="type2" route="0" departLane="random" departPos="base" departSpeed="max"/>

<vehicle id="122" depart="201.46" type="type2" route="1" departLane="random" departPos="base" departSpeed="max"/>

<vehicle id="123" depart="202.28" type="type2" route="0" departLane="random" departPos="base" departSpeed="max"/>

<vehicle id="124" depart="202.96" type="type2" route="0" departLane="random" departPos="base" departSpeed="max"/>

<vehicle id="125" depart="203.92" type="type2" route="0" departLane="random" departPos="base" departSpeed="max"/>

<vehicle id="126" depart="204.15" type="type2" route="0" departLane="random" departPos="base" departSpeed="max"/>

<vehicle id="127" depart="206.94" type="type2" route="0" departLane="random" departPos="base" departSpeed="max"/>

<vehicle id="128" depart="209.55" type="type2" route="0" departLane="random" departPos="base" departSpeed="max"/>

<vehicle id="129" depart="210.28" type="type2" route="0" departLane="random" departPos="base" departSpeed="max"/>

<vehicle id="130" depart="211.31" type="type2" route="0" departLane="random" departPos="base" departSpeed="max"/>

<vehicle id="131" depart="212.0" type="type2" route="0" departLane="random" departPos="base" departSpeed="max"/>

<vehicle id="132" depart="216.61" type="type2" route="0" departLane="random" departPos="base" departSpeed="max"/>

<vehicle id="133" depart="226.04" type="type2" route="0" departLane="random" departPos="base" departSpeed="max"/>

<vehicle id="134" depart="226.37" type="type2" route="0" departLane="random" departPos="base" departSpeed="max"/>

<vehicle id="135" depart="226.92" type="type2" route="0" departLane="random" departPos="base" departSpeed="max"/>

<vehicle id="136" depart="227.48" type="type2" route="0" departLane="random" departPos="base" departSpeed="max"/>

<vehicle id="137" depart="228.14" type="type2" route="1" departLane="random" departPos="base" departSpeed="max"/>

<vehicle id="138" depart="228.73" type="type2" route="0" departLane="random" departPos="base" departSpeed="max"/>

<vehicle id="139" depart="228.77" type="type2" route="0" departLane="random" departPos="base" departSpeed="max"/>

<vehicle id="140" depart="229.7" type="type2" route="0" departLane="random" departPos="base" departSpeed="max"/>

<vehicle id="141" depart="231.07" type="type2" route="1" departLane="random" departPos="base" departSpeed="max"/>

<vehicle id="142" depart="235.9" type="type2" route="0" departLane="random" departPos="base" departSpeed="max"/>

<vehicle id="143" depart="237.63" type="type2" route="0" departLane="random" departPos="base" departSpeed="max"/>

<vehicle id="144" depart="238.28" type="type2" route="0" departLane="random" departPos="base" departSpeed="max"/>

<vehicle id="145" depart="238.72" type="type2" route="0" departLane="random" departPos="base" departSpeed="max"/>

<vehicle id="146" depart="243.07" type="type2" route="0" departLane="random" departPos="base" departSpeed="max"/>

<vehicle id="147" depart="244.81" type="type2" route="0" departLane="random" departPos="base" departSpeed="max"/>

<vehicle id="148" depart="245.58" type="type2" route="0" departLane="random" departPos="base" departSpeed="max"/>

<vehicle id="149" depart="248.55" type="type2" route="0" departLane="random" departPos="base" departSpeed="max"/>

<vehicle id="150" depart="248.75" type="type2" route="1" departLane="random" departPos="base" departSpeed="max"/>

<vehicle id="151" depart="249.55" type="type2" route="0" departLane="random" departPos="base" departSpeed="max"/>

<vehicle id="152" depart="250.57" type="type2" route="0" departLane="random" departPos="base" departSpeed="max"/>

<vehicle id="153" depart="250.81" type="type2" route="0" departLane="random" departPos="base" departSpeed="max"/>

<vehicle id="154" depart="250.82" type="type2" route="0" departLane="random" departPos="base" departSpeed="max"/>

<vehicle id="155" depart="252.75" type="type2" route="0" departLane="random" departPos="base" departSpeed="max"/>

<vehicle id="156" depart="252.83" type="type2" route="0" departLane="random" departPos="base" departSpeed="max"/>

<vehicle id="157" depart="255.81" type="type2" route="0" departLane="random" departPos="base" departSpeed="max"/>

<vehicle id="158" depart="256.91" type="type2" route="0" departLane="random" departPos="base" departSpeed="max"/>

<vehicle id="159" depart="257.56" type="type2" route="0" departLane="random" departPos="base" departSpeed="max"/>

<vehicle id="160" depart="258.11" type="type2" route="0" departLane="random" departPos="base" departSpeed="max"/>

<vehicle id="161" depart="258.6" type="type2" route="0" departLane="random" departPos="base" departSpeed="max"/>

<vehicle id="162" depart="258.91" type="type2" route="1" departLane="random" departPos="base" departSpeed="max"/>

<vehicle id="163" depart="258.92" type="type2" route="0" departLane="random" departPos="base" departSpeed="max"/>

<vehicle id="164" depart="261.28" type="type2" route="0" departLane="random" departPos="base" departSpeed="max"/>

<vehicle id="165" depart="261.33" type="type2" route="0" departLane="random" departPos="base" departSpeed="max"/>

<vehicle id="166" depart="261.64" type="type2" route="0" departLane="random" departPos="base" departSpeed="max"/>

<vehicle id="167" depart="263.39" type="type2" route="0" departLane="random" departPos="base" departSpeed="max"/>

<vehicle id="168" depart="266.56" type="type2" route="0" departLane="random" departPos="base" departSpeed="max"/>

<vehicle id="169" depart="272.45" type="type2" route="0" departLane="random" departPos="base" departSpeed="max"/>

<vehicle id="170" depart="275.02" type="type2" route="0" departLane="random" departPos="base" departSpeed="max"/>

<vehicle id="171" depart="275.74" type="type2" route="0" departLane="random" departPos="base" departSpeed="max"/>

<vehicle id="172" depart="276.78" type="type2" route="0" departLane="random" departPos="base" departSpeed="max"/>

<vehicle id="173" depart="278.84" type="type2" route="0" departLane="random" departPos="base" departSpeed="max"/>

<vehicle id="174" depart="281.05" type="type2" route="0" departLane="random" departPos="base" departSpeed="max"/>

<vehicle id="175" depart="281.79" type="type2" route="0" departLane="random" departPos="base" departSpeed="max"/>

<vehicle id="176" depart="283.09" type="type2" route="1" departLane="random" departPos="base" departSpeed="max"/>

<vehicle id="177" depart="283.22" type="type2" route="0" departLane="random" departPos="base" departSpeed="max"/>

<vehicle id="178" depart="286.83" type="type2" route="0" departLane="random" departPos="base" departSpeed="max"/>

<vehicle id="179" depart="289.9" type="type2" route="0" departLane="random" departPos="base" departSpeed="max"/>

<vehicle id="180" depart="292.99" type="type2" route="0" departLane="random" departPos="base" departSpeed="max"/>

<vehicle id="181" depart="293.84" type="type2" route="0" departLane="random" departPos="base" departSpeed="max"/>

<vehicle id="182" depart="296.56" type="type2" route="0" departLane="random" departPos="base" departSpeed="max"/>

<vehicle id="183" depart="299.62" type="type2" route="0" departLane="random" departPos="base" departSpeed="max"/>

<vehicle id="184" depart="300.91" type="type2" route="0" departLane="random" departPos="base" departSpeed="max"/>

<vehicle id="185" depart="301.12" type="type2" route="1" departLane="random" departPos="base" departSpeed="max"/>

<vehicle id="186" depart="302.49" type="type2" route="0" departLane="random" departPos="base" departSpeed="max"/>

<vehicle id="187" depart="304.2" type="type2" route="0" departLane="random" departPos="base" departSpeed="max"/>

<vehicle id="188" depart="310.71" type="type2" route="0" departLane="random" departPos="base" departSpeed="max"/>

<vehicle id="189" depart="312.04" type="type2" route="0" departLane="random" departPos="base" departSpeed="max"/>

<vehicle id="190" depart="315.66" type="type2" route="1" departLane="random" departPos="base" departSpeed="max"/>

<vehicle id="191" depart="315.8" type="type2" route="0" departLane="random" departPos="base" departSpeed="max"/>

<vehicle id="192" depart="316.27" type="type2" route="1" departLane="random" departPos="base" departSpeed="max"/>

<vehicle id="193" depart="317.27" type="type2" route="1" departLane="random" departPos="base" departSpeed="max"/>

<vehicle id="194" depart="317.64" type="type2" route="1" departLane="random" departPos="base" departSpeed="max"/>

<vehicle id="195" depart="318.35" type="type2" route="1" departLane="random" departPos="base" departSpeed="max"/>

<vehicle id="196" depart="319.11" type="type2" route="0" departLane="random" departPos="base" departSpeed="max"/>

<vehicle id="197" depart="319.43" type="type2" route="0" departLane="random" departPos="base" departSpeed="max"/>

<vehicle id="198" depart="319.76" type="type2" route="0" departLane="random" departPos="base" departSpeed="max"/>

<vehicle id="199" depart="320.43" type="type2" route="0" departLane="random" departPos="base" departSpeed="max"/>

<vehicle id="200" depart="320.7" type="type2" route="0" departLane="random" departPos="base" departSpeed="max"/>

<vehicle id="201" depart="321.9" type="type2" route="0" departLane="random" departPos="base" departSpeed="max"/>

<vehicle id="202" depart="322.85" type="type2" route="0" departLane="random" departPos="base" departSpeed="max"/>

<vehicle id="203" depart="324.65" type="type2" route="0" departLane="random" departPos="base" departSpeed="max"/>

<vehicle id="204" depart="325.36" type="type2" route="0" departLane="random" departPos="base" departSpeed="max"/>

<vehicle id="205" depart="326.5" type="type2" route="0" departLane="random" departPos="base" departSpeed="max"/>

<vehicle id="206" depart="328.19" type="type2" route="0" departLane="random" departPos="base" departSpeed="max"/>

<vehicle id="207" depart="330.54" type="type2" route="1" departLane="random" departPos="base" departSpeed="max"/>

<vehicle id="208" depart="333.64" type="type2" route="1" departLane="random" departPos="base" departSpeed="max"/>

<vehicle id="209" depart="334.52" type="type2" route="0" departLane="random" departPos="base" departSpeed="max"/>

<vehicle id="210" depart="335.31" type="type2" route="0" departLane="random" departPos="base" departSpeed="max"/>

<vehicle id="211" depart="336.07" type="type2" route="0" departLane="random" departPos="base" departSpeed="max"/>

<vehicle id="212" depart="338.49" type="type2" route="0" departLane="random" departPos="base" departSpeed="max"/>

<vehicle id="213" depart="342.36" type="type2" route="0" departLane="random" departPos="base" departSpeed="max"/>

<vehicle id="214" depart="345.12" type="type2" route="0" departLane="random" departPos="base" departSpeed="max"/>

<vehicle id="215" depart="345.46" type="type2" route="0" departLane="random" departPos="base" departSpeed="max"/>

<vehicle id="216" depart="345.9" type="type2" route="1" departLane="random" departPos="base" departSpeed="max"/>

<vehicle id="217" depart="346.91" type="type2" route="1" departLane="random" departPos="base" departSpeed="max"/>

<vehicle id="218" depart="347.88" type="type2" route="1" departLane="random" departPos="base" departSpeed="max"/>

<vehicle id="219" depart="348.77" type="type2" route="0" departLane="random" departPos="base" departSpeed="max"/>

<vehicle id="220" depart="350.98" type="type2" route="0" departLane="random" departPos="base" departSpeed="max"/>

<vehicle id="221" depart="351.42" type="type2" route="1" departLane="random" departPos="base" departSpeed="max"/>

<vehicle id="222" depart="351.99" type="type2" route="0" departLane="random" departPos="base" departSpeed="max"/>

<vehicle id="223" depart="354.11" type="type2" route="0" departLane="random" departPos="base" departSpeed="max"/>

<vehicle id="224" depart="360.4" type="type2" route="0" departLane="random" departPos="base" departSpeed="max"/>

<vehicle id="225" depart="360.43" type="type2" route="0" departLane="random" departPos="base" departSpeed="max"/>

<vehicle id="226" depart="360.95" type="type2" route="0" departLane="random" departPos="base" departSpeed="max"/>

<vehicle id="227" depart="361.12" type="type2" route="1" departLane="random" departPos="base" departSpeed="max"/>

<vehicle id="228" depart="363.81" type="type2" route="0" departLane="random" departPos="base" departSpeed="max"/>

<vehicle id="229" depart="364.85" type="type2" route="0" departLane="random" departPos="base" departSpeed="max"/>

<vehicle id="230" depart="368.3" type="type2" route="0" departLane="random" departPos="base" departSpeed="max"/>

<vehicle id="231" depart="369.44" type="type2" route="0" departLane="random" departPos="base" departSpeed="max"/>

<vehicle id="232" depart="369.74" type="type2" route="0" departLane="random" departPos="base" departSpeed="max"/>

<vehicle id="233" depart="370.06" type="type2" route="0" departLane="random" departPos="base" departSpeed="max"/>

<vehicle id="234" depart="372.69" type="type2" route="0" departLane="random" departPos="base" departSpeed="max"/>

<vehicle id="235" depart="373.81" type="type2" route="0" departLane="random" departPos="base" departSpeed="max"/>

<vehicle id="236" depart="374.02" type="type2" route="0" departLane="random" departPos="base" departSpeed="max"/>

<vehicle id="237" depart="375.48" type="type2" route="0" departLane="random" departPos="base" departSpeed="max"/>

<vehicle id="238" depart="377.12" type="type2" route="0" departLane="random" departPos="base" departSpeed="max"/>

<vehicle id="239" depart="379.24" type="type2" route="0" departLane="random" departPos="base" departSpeed="max"/>

<vehicle id="240" depart="381.48" type="type2" route="0" departLane="random" departPos="base" departSpeed="max"/>

<vehicle id="241" depart="383.74" type="type2" route="1" departLane="random" departPos="base" departSpeed="max"/>

<vehicle id="242" depart="384.21" type="type2" route="0" departLane="random" departPos="base" departSpeed="max"/>

<vehicle id="243" depart="384.73" type="type2" route="0" departLane="random" departPos="base" departSpeed="max"/>

<vehicle id="244" depart="385.03" type="type2" route="0" departLane="random" departPos="base" departSpeed="max"/>

<vehicle id="245" depart="387.33" type="type2" route="0" departLane="random" departPos="base" departSpeed="max"/>

<vehicle id="246" depart="388.36" type="type2" route="0" departLane="random" departPos="base" departSpeed="max"/>

<vehicle id="247" depart="389.54" type="type2" route="0" departLane="random" departPos="base" departSpeed="max"/>

<vehicle id="248" depart="390.25" type="type2" route="0" departLane="random" departPos="base" departSpeed="max"/>

<vehicle id="249" depart="391.14" type="type2" route="0" departLane="random" departPos="base" departSpeed="max"/>

<vehicle id="250" depart="393.29" type="type2" route="0" departLane="random" departPos="base" departSpeed="max"/>

<vehicle id="251" depart="394.11" type="type2" route="0" departLane="random" departPos="base" departSpeed="max"/>

<vehicle id="252" depart="394.58" type="type2" route="1" departLane="random" departPos="base" departSpeed="max"/>

<vehicle id="253" depart="396.6" type="type2" route="0" departLane="random" departPos="base" departSpeed="max"/>
