<routes>

<vType id="type2" color="yellow" vClass="passenger" length = "5" lcKeepRight="-1" sigma="0.5" tau="1.3" mingap="2.0" accel="3.0" decel="4.5" speedFactor="1.0" speedDev="0.04" lcAssertive="0.5" lcStrategic="0.5" lcSpeedGain="1.0" lcImpatience="0.5"  lcCooperative="1.0" lcLookaheadLeft="5.0"/>

<route id="0" edges="VM M0 M1 M2 M3"/> 
<route id="1" edges="VR R0 R1 R2 M3"/> 
<vehicle id="0" depart="0.61" type="type2" route="0" departLane="random" departPos="base" departSpeed="max"/>

<vehicle id="1" depart="1.05" type="type2" route="0" departLane="random" departPos="base" departSpeed="max"/>

<vehicle id="2" depart="2.01" type="type2" route="0" departLane="random" departPos="base" departSpeed="max"/>

<vehicle id="3" depart="2.09" type="type2" route="0" departLane="random" departPos="base" departSpeed="max"/>

<vehicle id="4" depart="2.25" type="type2" route="0" departLane="random" departPos="base" departSpeed="max"/>

<vehicle id="5" depart="2.78" type="type2" route="0" departLane="random" departPos="base" departSpeed="max"/>

<vehicle id="6" depart="3.16" type="type2" route="0" departLane="random" departPos="base" departSpeed="max"/>

<vehicle id="7" depart="3.53" type="type2" route="0" departLane="random" departPos="base" departSpeed="max"/>

<vehicle id="8" depart="4.56" type="type2" route="0" departLane="random" departPos="base" departSpeed="max"/>

<vehicle id="9" depart="4.62" type="type2" route="0" departLane="random" departPos="base" departSpeed="max"/>

<vehicle id="10" depart="5.43" type="type2" route="0" departLane="random" departPos="base" departSpeed="max"/>

<vehicle id="11" depart="5.95" type="type2" route="0" departLane="random" departPos="base" departSpeed="max"/>

<vehicle id="12" depart="6.81" type="type2" route="0" departLane="random" departPos="base" departSpeed="max"/>

<vehicle id="13" depart="7.21" type="type2" route="0" departLane="random" departPos="base" departSpeed="max"/>

<vehicle id="14" depart="7.35" type="type2" route="0" departLane="random" departPos="base" departSpeed="max"/>

<vehicle id="15" depart="8.16" type="type2" route="1" departLane="random" departPos="base" departSpeed="max"/>

<vehicle id="16" depart="8.34" type="type2" route="0" departLane="random" departPos="base" departSpeed="max"/>

<vehicle id="17" depart="9.45" type="type2" route="0" departLane="random" departPos="base" departSpeed="max"/>

<vehicle id="18" depart="9.58" type="type2" route="0" departLane="random" departPos="base" departSpeed="max"/>

<vehicle id="19" depart="9.64" type="type2" route="1" departLane="random" departPos="base" departSpeed="max"/>

<vehicle id="20" depart="11.3" type="type2" route="0" departLane="random" departPos="base" departSpeed="max"/>

<vehicle id="21" depart="12.69" type="type2" route="0" departLane="random" departPos="base" departSpeed="max"/>

<vehicle id="22" depart="12.84" type="type2" route="0" departLane="random" departPos="base" departSpeed="max"/>

<vehicle id="23" depart="14.09" type="type2" route="1" departLane="random" departPos="base" departSpeed="max"/>

<vehicle id="24" depart="16.43" type="type2" route="0" departLane="random" departPos="base" departSpeed="max"/>

<vehicle id="25" depart="16.47" type="type2" route="1" departLane="random" departPos="base" departSpeed="max"/>

<vehicle id="26" depart="17.01" type="type2" route="0" departLane="random" departPos="base" departSpeed="max"/>

<vehicle id="27" depart="17.05" type="type2" route="0" departLane="random" departPos="base" departSpeed="max"/>

<vehicle id="28" depart="18.51" type="type2" route="0" departLane="random" departPos="base" departSpeed="max"/>

<vehicle id="29" depart="19.68" type="type2" route="0" departLane="random" departPos="base" departSpeed="max"/>

<vehicle id="30" depart="19.92" type="type2" route="0" departLane="random" departPos="base" departSpeed="max"/>

<vehicle id="31" depart="20.31" type="type2" route="0" departLane="random" departPos="base" departSpeed="max"/>

<vehicle id="32" depart="21.86" type="type2" route="0" departLane="random" departPos="base" departSpeed="max"/>

<vehicle id="33" depart="22.77" type="type2" route="0" departLane="random" departPos="base" departSpeed="max"/>

<vehicle id="34" depart="22.79" type="type2" route="1" departLane="random" departPos="base" departSpeed="max"/>

<vehicle id="35" depart="23.22" type="type2" route="0" departLane="random" departPos="base" departSpeed="max"/>

<vehicle id="36" depart="24.86" type="type2" route="0" departLane="random" departPos="base" departSpeed="max"/>

<vehicle id="37" depart="24.92" type="type2" route="0" departLane="random" departPos="base" departSpeed="max"/>

<vehicle id="38" depart="25.03" type="type2" route="0" departLane="random" departPos="base" departSpeed="max"/>

<vehicle id="39" depart="25.22" type="type2" route="0" departLane="random" departPos="base" departSpeed="max"/>

<vehicle id="40" depart="26.38" type="type2" route="0" departLane="random" departPos="base" departSpeed="max"/>

<vehicle id="41" depart="26.84" type="type2" route="0" departLane="random" departPos="base" departSpeed="max"/>

<vehicle id="42" depart="27.3" type="type2" route="1" departLane="random" departPos="base" departSpeed="max"/>

<vehicle id="43" depart="27.58" type="type2" route="0" departLane="random" departPos="base" departSpeed="max"/>

<vehicle id="44" depart="28.22" type="type2" route="0" departLane="random" departPos="base" departSpeed="max"/>

<vehicle id="45" depart="28.63" type="type2" route="0" departLane="random" departPos="base" departSpeed="max"/>

<vehicle id="46" depart="29.38" type="type2" route="0" departLane="random" departPos="base" departSpeed="max"/>

<vehicle id="47" depart="29.65" type="type2" route="0" departLane="random" departPos="base" departSpeed="max"/>

<vehicle id="48" depart="30.06" type="type2" route="1" departLane="random" departPos="base" departSpeed="max"/>

<vehicle id="49" depart="31.46" type="type2" route="0" departLane="random" departPos="base" departSpeed="max"/>

<vehicle id="50" depart="31.88" type="type2" route="0" departLane="random" departPos="base" departSpeed="max"/>

<vehicle id="51" depart="34.96" type="type2" route="0" departLane="random" departPos="base" departSpeed="max"/>

<vehicle id="52" depart="35.26" type="type2" route="0" departLane="random" departPos="base" departSpeed="max"/>

<vehicle id="53" depart="35.3" type="type2" route="0" departLane="random" departPos="base" departSpeed="max"/>

<vehicle id="54" depart="35.73" type="type2" route="0" departLane="random" departPos="base" departSpeed="max"/>

<vehicle id="55" depart="36.4" type="type2" route="0" departLane="random" departPos="base" departSpeed="max"/>

<vehicle id="56" depart="36.5" type="type2" route="0" departLane="random" departPos="base" departSpeed="max"/>

<vehicle id="57" depart="36.66" type="type2" route="0" departLane="random" departPos="base" departSpeed="max"/>

<vehicle id="58" depart="37.19" type="type2" route="0" departLane="random" departPos="base" departSpeed="max"/>

<vehicle id="59" depart="37.6" type="type2" route="0" departLane="random" departPos="base" departSpeed="max"/>

<vehicle id="60" depart="37.69" type="type2" route="0" departLane="random" departPos="base" departSpeed="max"/>

<vehicle id="61" depart="37.83" type="type2" route="0" departLane="random" departPos="base" departSpeed="max"/>

<vehicle id="62" depart="38.21" type="type2" route="1" departLane="random" departPos="base" departSpeed="max"/>

<vehicle id="63" depart="38.51" type="type2" route="0" departLane="random" departPos="base" departSpeed="max"/>

<vehicle id="64" depart="38.78" type="type2" route="1" departLane="random" departPos="base" departSpeed="max"/>

<vehicle id="65" depart="39.1" type="type2" route="0" departLane="random" departPos="base" departSpeed="max"/>

<vehicle id="66" depart="40.37" type="type2" route="1" departLane="random" departPos="base" departSpeed="max"/>

<vehicle id="67" depart="41.3" type="type2" route="0" departLane="random" departPos="base" departSpeed="max"/>

<vehicle id="68" depart="41.53" type="type2" route="0" departLane="random" departPos="base" departSpeed="max"/>

<vehicle id="69" depart="41.53" type="type2" route="0" departLane="random" departPos="base" departSpeed="max"/>

<vehicle id="70" depart="41.64" type="type2" route="0" departLane="random" departPos="base" departSpeed="max"/>

<vehicle id="71" depart="41.79" type="type2" route="0" departLane="random" departPos="base" departSpeed="max"/>

<vehicle id="72" depart="43.16" type="type2" route="0" departLane="random" departPos="base" departSpeed="max"/>

<vehicle id="73" depart="43.44" type="type2" route="0" departLane="random" departPos="base" departSpeed="max"/>

<vehicle id="74" depart="43.73" type="type2" route="1" departLane="random" departPos="base" departSpeed="max"/>

<vehicle id="75" depart="43.94" type="type2" route="0" departLane="random" departPos="base" departSpeed="max"/>

<vehicle id="76" depart="44.06" type="type2" route="0" departLane="random" departPos="base" departSpeed="max"/>

<vehicle id="77" depart="45.01" type="type2" route="1" departLane="random" departPos="base" departSpeed="max"/>

<vehicle id="78" depart="45.63" type="type2" route="0" departLane="random" departPos="base" departSpeed="max"/>

<vehicle id="79" depart="46.56" type="type2" route="1" departLane="random" departPos="base" departSpeed="max"/>

<vehicle id="80" depart="46.99" type="type2" route="0" departLane="random" departPos="base" departSpeed="max"/>

<vehicle id="81" depart="48.16" type="type2" route="0" departLane="random" departPos="base" departSpeed="max"/>

<vehicle id="82" depart="48.81" type="type2" route="0" departLane="random" departPos="base" departSpeed="max"/>

<vehicle id="83" depart="49.86" type="type2" route="0" departLane="random" departPos="base" departSpeed="max"/>

<vehicle id="84" depart="50.74" type="type2" route="0" departLane="random" departPos="base" departSpeed="max"/>

<vehicle id="85" depart="50.92" type="type2" route="0" departLane="random" departPos="base" departSpeed="max"/>

<vehicle id="86" depart="51.85" type="type2" route="0" departLane="random" departPos="base" departSpeed="max"/>

<vehicle id="87" depart="52.41" type="type2" route="0" departLane="random" departPos="base" departSpeed="max"/>

<vehicle id="88" depart="52.42" type="type2" route="0" departLane="random" departPos="base" departSpeed="max"/>

<vehicle id="89" depart="52.56" type="type2" route="1" departLane="random" departPos="base" departSpeed="max"/>

<vehicle id="90" depart="52.74" type="type2" route="0" departLane="random" departPos="base" departSpeed="max"/>

<vehicle id="91" depart="54.33" type="type2" route="0" departLane="random" departPos="base" departSpeed="max"/>

<vehicle id="92" depart="54.77" type="type2" route="0" departLane="random" departPos="base" departSpeed="max"/>

<vehicle id="93" depart="55.73" type="type2" route="0" departLane="random" departPos="base" departSpeed="max"/>

<vehicle id="94" depart="56.11" type="type2" route="0" departLane="random" departPos="base" departSpeed="max"/>

<vehicle id="95" depart="56.29" type="type2" route="0" departLane="random" departPos="base" departSpeed="max"/>

<vehicle id="96" depart="57.78" type="type2" route="0" departLane="random" departPos="base" departSpeed="max"/>

<vehicle id="97" depart="58.62" type="type2" route="0" departLane="random" departPos="base" departSpeed="max"/>

<vehicle id="98" depart="58.66" type="type2" route="0" departLane="random" departPos="base" departSpeed="max"/>

<vehicle id="99" depart="59.17" type="type2" route="0" departLane="random" departPos="base" departSpeed="max"/>

<vehicle id="100" depart="60.72" type="type2" route="0" departLane="random" departPos="base" departSpeed="max"/>

<vehicle id="101" depart="61.29" type="type2" route="0" departLane="random" departPos="base" departSpeed="max"/>

<vehicle id="102" depart="61.62" type="type2" route="0" departLane="random" departPos="base" departSpeed="max"/>

<vehicle id="103" depart="62.22" type="type2" route="1" departLane="random" departPos="base" departSpeed="max"/>

<vehicle id="104" depart="63.38" type="type2" route="0" departLane="random" departPos="base" departSpeed="max"/>

<vehicle id="105" depart="63.62" type="type2" route="1" departLane="random" departPos="base" departSpeed="max"/>

<vehicle id="106" depart="64.18" type="type2" route="1" departLane="random" departPos="base" departSpeed="max"/>

<vehicle id="107" depart="65.24" type="type2" route="0" departLane="random" departPos="base" departSpeed="max"/>

<vehicle id="108" depart="65.62" type="type2" route="0" departLane="random" departPos="base" departSpeed="max"/>

<vehicle id="109" depart="65.87" type="type2" route="1" departLane="random" departPos="base" departSpeed="max"/>

<vehicle id="110" depart="66.15" type="type2" route="0" departLane="random" departPos="base" departSpeed="max"/>

<vehicle id="111" depart="67.0" type="type2" route="0" departLane="random" departPos="base" departSpeed="max"/>

<vehicle id="112" depart="67.76" type="type2" route="0" departLane="random" departPos="base" departSpeed="max"/>

<vehicle id="113" depart="68.48" type="type2" route="1" departLane="random" departPos="base" departSpeed="max"/>

<vehicle id="114" depart="68.63" type="type2" route="0" departLane="random" departPos="base" departSpeed="max"/>

<vehicle id="115" depart="69.78" type="type2" route="0" departLane="random" departPos="base" departSpeed="max"/>

<vehicle id="116" depart="70.13" type="type2" route="0" departLane="random" departPos="base" departSpeed="max"/>

<vehicle id="117" depart="70.57" type="type2" route="0" departLane="random" departPos="base" departSpeed="max"/>

<vehicle id="118" depart="71.29" type="type2" route="0" departLane="random" departPos="base" departSpeed="max"/>

<vehicle id="119" depart="71.43" type="type2" route="0" departLane="random" departPos="base" departSpeed="max"/>

<vehicle id="120" depart="72.19" type="type2" route="0" departLane="random" departPos="base" departSpeed="max"/>

<vehicle id="121" depart="72.4" type="type2" route="0" departLane="random" departPos="base" departSpeed="max"/>

<vehicle id="122" depart="72.54" type="type2" route="0" departLane="random" departPos="base" departSpeed="max"/>

<vehicle id="123" depart="73.32" type="type2" route="0" departLane="random" departPos="base" departSpeed="max"/>

<vehicle id="124" depart="73.68" type="type2" route="0" departLane="random" departPos="base" departSpeed="max"/>

<vehicle id="125" depart="73.7" type="type2" route="0" departLane="random" departPos="base" departSpeed="max"/>

<vehicle id="126" depart="73.75" type="type2" route="0" departLane="random" departPos="base" departSpeed="max"/>

<vehicle id="127" depart="74.05" type="type2" route="0" departLane="random" departPos="base" departSpeed="max"/>

<vehicle id="128" depart="74.58" type="type2" route="0" departLane="random" departPos="base" departSpeed="max"/>

<vehicle id="129" depart="75.55" type="type2" route="0" departLane="random" departPos="base" departSpeed="max"/>

<vehicle id="130" depart="75.61" type="type2" route="0" departLane="random" departPos="base" departSpeed="max"/>

<vehicle id="131" depart="76.58" type="type2" route="0" departLane="random" departPos="base" departSpeed="max"/>

<vehicle id="132" depart="77.91" type="type2" route="0" departLane="random" departPos="base" departSpeed="max"/>

<vehicle id="133" depart="78.38" type="type2" route="0" departLane="random" departPos="base" departSpeed="max"/>

<vehicle id="134" depart="78.44" type="type2" route="0" departLane="random" departPos="base" departSpeed="max"/>

<vehicle id="135" depart="78.57" type="type2" route="0" departLane="random" departPos="base" departSpeed="max"/>

<vehicle id="136" depart="79.2" type="type2" route="0" departLane="random" departPos="base" departSpeed="max"/>

<vehicle id="137" depart="79.33" type="type2" route="0" departLane="random" departPos="base" departSpeed="max"/>

<vehicle id="138" depart="79.93" type="type2" route="1" departLane="random" departPos="base" departSpeed="max"/>

<vehicle id="139" depart="80.11" type="type2" route="0" departLane="random" departPos="base" departSpeed="max"/>

<vehicle id="140" depart="80.29" type="type2" route="0" departLane="random" departPos="base" departSpeed="max"/>

<vehicle id="141" depart="80.35" type="type2" route="0" departLane="random" departPos="base" departSpeed="max"/>

<vehicle id="142" depart="81.62" type="type2" route="0" departLane="random" departPos="base" departSpeed="max"/>

<vehicle id="143" depart="85.19" type="type2" route="0" departLane="random" departPos="base" departSpeed="max"/>

<vehicle id="144" depart="85.2" type="type2" route="0" departLane="random" departPos="base" departSpeed="max"/>

<vehicle id="145" depart="86.14" type="type2" route="0" departLane="random" departPos="base" departSpeed="max"/>

<vehicle id="146" depart="86.55" type="type2" route="0" departLane="random" departPos="base" departSpeed="max"/>

<vehicle id="147" depart="86.72" type="type2" route="0" departLane="random" departPos="base" departSpeed="max"/>

<vehicle id="148" depart="87.06" type="type2" route="0" departLane="random" departPos="base" departSpeed="max"/>

<vehicle id="149" depart="87.39" type="type2" route="1" departLane="random" departPos="base" departSpeed="max"/>

<vehicle id="150" depart="88.04" type="type2" route="0" departLane="random" departPos="base" departSpeed="max"/>

<vehicle id="151" depart="91.78" type="type2" route="0" departLane="random" departPos="base" departSpeed="max"/>

<vehicle id="152" depart="91.81" type="type2" route="0" departLane="random" departPos="base" departSpeed="max"/>

<vehicle id="153" depart="92.32" type="type2" route="0" departLane="random" departPos="base" departSpeed="max"/>

<vehicle id="154" depart="93.13" type="type2" route="0" departLane="random" departPos="base" departSpeed="max"/>

<vehicle id="155" depart="93.21" type="type2" route="0" departLane="random" departPos="base" departSpeed="max"/>

<vehicle id="156" depart="94.08" type="type2" route="0" departLane="random" departPos="base" departSpeed="max"/>

<vehicle id="157" depart="94.11" type="type2" route="1" departLane="random" departPos="base" departSpeed="max"/>

<vehicle id="158" depart="95.16" type="type2" route="0" departLane="random" departPos="base" departSpeed="max"/>

<vehicle id="159" depart="96.11" type="type2" route="0" departLane="random" departPos="base" departSpeed="max"/>

<vehicle id="160" depart="97.62" type="type2" route="1" departLane="random" departPos="base" departSpeed="max"/>

<vehicle id="161" depart="97.84" type="type2" route="0" departLane="random" departPos="base" departSpeed="max"/>

<vehicle id="162" depart="98.66" type="type2" route="1" departLane="random" departPos="base" departSpeed="max"/>

<vehicle id="163" depart="99.37" type="type2" route="0" departLane="random" departPos="base" departSpeed="max"/>

<vehicle id="164" depart="99.64" type="type2" route="0" departLane="random" departPos="base" departSpeed="max"/>

<vehicle id="165" depart="101.05" type="type2" route="0" departLane="random" departPos="base" departSpeed="max"/>

<vehicle id="166" depart="101.51" type="type2" route="0" departLane="random" departPos="base" departSpeed="max"/>

<vehicle id="167" depart="101.6" type="type2" route="0" departLane="random" departPos="base" departSpeed="max"/>

<vehicle id="168" depart="101.96" type="type2" route="0" departLane="random" departPos="base" departSpeed="max"/>

<vehicle id="169" depart="102.17" type="type2" route="0" departLane="random" departPos="base" departSpeed="max"/>

<vehicle id="170" depart="102.66" type="type2" route="0" departLane="random" departPos="base" departSpeed="max"/>

<vehicle id="171" depart="103.4" type="type2" route="0" departLane="random" departPos="base" departSpeed="max"/>

<vehicle id="172" depart="103.62" type="type2" route="0" departLane="random" departPos="base" departSpeed="max"/>

<vehicle id="173" depart="103.84" type="type2" route="0" departLane="random" departPos="base" departSpeed="max"/>

<vehicle id="174" depart="104.2" type="type2" route="0" departLane="random" departPos="base" departSpeed="max"/>

<vehicle id="175" depart="106.63" type="type2" route="0" departLane="random" departPos="base" departSpeed="max"/>

<vehicle id="176" depart="107.08" type="type2" route="1" departLane="random" departPos="base" departSpeed="max"/>

<vehicle id="177" depart="107.53" type="type2" route="0" departLane="random" departPos="base" departSpeed="max"/>

<vehicle id="178" depart="108.14" type="type2" route="0" departLane="random" departPos="base" departSpeed="max"/>

<vehicle id="179" depart="108.2" type="type2" route="0" departLane="random" departPos="base" departSpeed="max"/>

<vehicle id="180" depart="109.02" type="type2" route="0" departLane="random" departPos="base" departSpeed="max"/>

<vehicle id="181" depart="110.45" type="type2" route="1" departLane="random" departPos="base" departSpeed="max"/>

<vehicle id="182" depart="110.78" type="type2" route="0" departLane="random" departPos="base" departSpeed="max"/>

<vehicle id="183" depart="111.15" type="type2" route="0" departLane="random" departPos="base" departSpeed="max"/>

<vehicle id="184" depart="111.5" type="type2" route="0" departLane="random" departPos="base" departSpeed="max"/>

<vehicle id="185" depart="111.53" type="type2" route="1" departLane="random" departPos="base" departSpeed="max"/>

<vehicle id="186" depart="111.59" type="type2" route="0" departLane="random" departPos="base" departSpeed="max"/>

<vehicle id="187" depart="113.56" type="type2" route="0" departLane="random" departPos="base" departSpeed="max"/>

<vehicle id="188" depart="114.73" type="type2" route="0" departLane="random" departPos="base" departSpeed="max"/>

<vehicle id="189" depart="115.67" type="type2" route="0" departLane="random" departPos="base" departSpeed="max"/>

<vehicle id="190" depart="116.44" type="type2" route="0" departLane="random" departPos="base" departSpeed="max"/>

<vehicle id="191" depart="116.6" type="type2" route="1" departLane="random" departPos="base" departSpeed="max"/>

<vehicle id="192" depart="116.97" type="type2" route="0" departLane="random" departPos="base" departSpeed="max"/>

<vehicle id="193" depart="117.74" type="type2" route="0" departLane="random" departPos="base" departSpeed="max"/>

<vehicle id="194" depart="118.43" type="type2" route="0" departLane="random" departPos="base" departSpeed="max"/>

<vehicle id="195" depart="118.9" type="type2" route="0" departLane="random" departPos="base" departSpeed="max"/>

<vehicle id="196" depart="119.34" type="type2" route="0" departLane="random" departPos="base" departSpeed="max"/>

<vehicle id="197" depart="120.09" type="type2" route="0" departLane="random" departPos="base" departSpeed="max"/>

<vehicle id="198" depart="120.48" type="type2" route="0" departLane="random" departPos="base" departSpeed="max"/>

<vehicle id="199" depart="121.51" type="type2" route="0" departLane="random" departPos="base" departSpeed="max"/>

<vehicle id="200" depart="122.11" type="type2" route="0" departLane="random" departPos="base" departSpeed="max"/>

<vehicle id="201" depart="123.0" type="type2" route="1" departLane="random" departPos="base" departSpeed="max"/>

<vehicle id="202" depart="124.13" type="type2" route="0" departLane="random" departPos="base" departSpeed="max"/>

<vehicle id="203" depart="125.26" type="type2" route="0" departLane="random" departPos="base" departSpeed="max"/>

<vehicle id="204" depart="125.37" type="type2" route="0" departLane="random" departPos="base" departSpeed="max"/>

<vehicle id="205" depart="126.92" type="type2" route="0" departLane="random" departPos="base" departSpeed="max"/>

<vehicle id="206" depart="126.92" type="type2" route="0" departLane="random" departPos="base" departSpeed="max"/>

<vehicle id="207" depart="127.77" type="type2" route="0" departLane="random" departPos="base" departSpeed="max"/>

<vehicle id="208" depart="128.19" type="type2" route="0" departLane="random" departPos="base" departSpeed="max"/>

<vehicle id="209" depart="128.71" type="type2" route="0" departLane="random" departPos="base" departSpeed="max"/>

<vehicle id="210" depart="129.51" type="type2" route="0" departLane="random" departPos="base" departSpeed="max"/>

<vehicle id="211" depart="130.71" type="type2" route="0" departLane="random" departPos="base" departSpeed="max"/>

<vehicle id="212" depart="132.46" type="type2" route="0" departLane="random" departPos="base" departSpeed="max"/>

<vehicle id="213" depart="132.98" type="type2" route="0" departLane="random" departPos="base" departSpeed="max"/>

<vehicle id="214" depart="134.31" type="type2" route="0" departLane="random" departPos="base" departSpeed="max"/>

<vehicle id="215" depart="134.46" type="type2" route="0" departLane="random" departPos="base" departSpeed="max"/>

<vehicle id="216" depart="134.78" type="type2" route="0" departLane="random" departPos="base" departSpeed="max"/>

<vehicle id="217" depart="135.35" type="type2" route="0" departLane="random" departPos="base" departSpeed="max"/>

<vehicle id="218" depart="135.54" type="type2" route="0" departLane="random" departPos="base" departSpeed="max"/>

<vehicle id="219" depart="135.69" type="type2" route="0" departLane="random" departPos="base" departSpeed="max"/>

<vehicle id="220" depart="135.72" type="type2" route="0" departLane="random" departPos="base" departSpeed="max"/>

<vehicle id="221" depart="136.57" type="type2" route="0" departLane="random" departPos="base" departSpeed="max"/>

<vehicle id="222" depart="136.94" type="type2" route="0" departLane="random" departPos="base" departSpeed="max"/>

<vehicle id="223" depart="137.49" type="type2" route="0" departLane="random" departPos="base" departSpeed="max"/>

<vehicle id="224" depart="138.48" type="type2" route="0" departLane="random" departPos="base" departSpeed="max"/>

<vehicle id="225" depart="138.9" type="type2" route="0" departLane="random" departPos="base" departSpeed="max"/>

<vehicle id="226" depart="139.54" type="type2" route="0" departLane="random" departPos="base" departSpeed="max"/>

<vehicle id="227" depart="139.73" type="type2" route="1" departLane="random" departPos="base" departSpeed="max"/>

<vehicle id="228" depart="139.76" type="type2" route="0" departLane="random" departPos="base" departSpeed="max"/>

<vehicle id="229" depart="140.31" type="type2" route="0" departLane="random" departPos="base" departSpeed="max"/>

<vehicle id="230" depart="141.02" type="type2" route="0" departLane="random" departPos="base" departSpeed="max"/>

<vehicle id="231" depart="143.33" type="type2" route="0" departLane="random" departPos="base" departSpeed="max"/>

<vehicle id="232" depart="143.76" type="type2" route="0" departLane="random" departPos="base" departSpeed="max"/>

<vehicle id="233" depart="144.0" type="type2" route="0" departLane="random" departPos="base" departSpeed="max"/>

<vehicle id="234" depart="144.51" type="type2" route="0" departLane="random" departPos="base" departSpeed="max"/>

<vehicle id="235" depart="144.78" type="type2" route="0" departLane="random" departPos="base" departSpeed="max"/>

<vehicle id="236" depart="144.78" type="type2" route="0" departLane="random" departPos="base" departSpeed="max"/>

<vehicle id="237" depart="147.38" type="type2" route="0" departLane="random" departPos="base" departSpeed="max"/>

<vehicle id="238" depart="147.47" type="type2" route="0" departLane="random" departPos="base" departSpeed="max"/>

<vehicle id="239" depart="147.47" type="type2" route="0" departLane="random" departPos="base" departSpeed="max"/>

<vehicle id="240" depart="147.87" type="type2" route="0" departLane="random" departPos="base" departSpeed="max"/>

<vehicle id="241" depart="150.07" type="type2" route="0" departLane="random" departPos="base" departSpeed="max"/>

<vehicle id="242" depart="151.76" type="type2" route="0" departLane="random" departPos="base" departSpeed="max"/>

<vehicle id="243" depart="151.89" type="type2" route="0" departLane="random" departPos="base" departSpeed="max"/>

<vehicle id="244" depart="152.86" type="type2" route="0" departLane="random" departPos="base" departSpeed="max"/>

<vehicle id="245" depart="152.91" type="type2" route="0" departLane="random" departPos="base" departSpeed="max"/>

<vehicle id="246" depart="153.1" type="type2" route="0" departLane="random" departPos="base" departSpeed="max"/>

<vehicle id="247" depart="153.67" type="type2" route="0" departLane="random" departPos="base" departSpeed="max"/>

<vehicle id="248" depart="153.94" type="type2" route="1" departLane="random" departPos="base" departSpeed="max"/>

<vehicle id="249" depart="154.13" type="type2" route="0" departLane="random" departPos="base" departSpeed="max"/>

<vehicle id="250" depart="155.19" type="type2" route="0" departLane="random" departPos="base" departSpeed="max"/>

<vehicle id="251" depart="155.21" type="type2" route="0" departLane="random" departPos="base" departSpeed="max"/>

<vehicle id="252" depart="155.86" type="type2" route="0" departLane="random" departPos="base" departSpeed="max"/>

<vehicle id="253" depart="156.12" type="type2" route="1" departLane="random" departPos="base" departSpeed="max"/>

<vehicle id="254" depart="156.98" type="type2" route="0" departLane="random" departPos="base" departSpeed="max"/>
